/*--------------------------------*- C++ -*----------------------------------*\
| =========                 |                                                 |
| \\      /  F ield         | OpenFOAM: The Open Source CFD Toolbox           |
|  \\    /   O peration     | Version:  2512                                  |
|   \\  /    A nd           | Website:  www.openfoam.com                      |
|    \\/     M anipulation  |                                                 |
\*---------------------------------------------------------------------------*/
FoamFile
{
    version     2.0;
    format      ascii;
    arch        "LSB;label=32;scalar=64";
    class       polyBoundaryMesh;
    location    "constant/polyMesh";
    object      boundary;
}
// * * * * * * * * * * * * * * * * * * * * * * * * * * * * * * * * * * * * * //

9
(
    inlet
    {
        type            patch;
        nFaces          0;
        startFace       16432;
    }
    outlet
    {
        type            patch;
        nFaces          0;
        startFace       16432;
    }
    lowerWall
    {
        type            wall;
        inGroups        1(wall);
        nFaces          149;
        startFace       16432;
    }
    upperWall
    {
        type            wall;
        inGroups        1(wall);
        nFaces          0;
        startFace       16581;
    }
    frontAndBack
    {
        type            wall;
        inGroups        1(wall);
        nFaces          16666;
        startFace       16581;
    }
    procBoundary2to5
    {
        type            processor;
        inGroups        1(processor);
        nFaces          148;
        startFace       33247;
        matchTolerance  0.0001;
        transform       unknown;
        myProcNo        2;
        neighbProcNo    5;
    }
    procBoundary2to7
    {
        type            processor;
        inGroups        1(processor);
        nFaces          50;
        startFace       33395;
        matchTolerance  0.0001;
        transform       unknown;
        myProcNo        2;
        neighbProcNo    7;
    }
    procBoundary2to8
    {
        type            processor;
        inGroups        1(processor);
        nFaces          85;
        startFace       33445;
        matchTolerance  0.0001;
        transform       unknown;
        myProcNo        2;
        neighbProcNo    8;
    }
    procBoundary2to11
    {
        type            processor;
        inGroups        1(processor);
        nFaces          36;
        startFace       33530;
        matchTolerance  0.0001;
        transform       unknown;
        myProcNo        2;
        neighbProcNo    11;
    }
)

// ************************************************************************* //
