/*--------------------------------*- C++ -*----------------------------------*\
| =========                 |                                                 |
| \\      /  F ield         | OpenFOAM: The Open Source CFD Toolbox           |
|  \\    /   O peration     | Version:  2512                                  |
|   \\  /    A nd           | Website:  www.openfoam.com                      |
|    \\/     M anipulation  |                                                 |
\*---------------------------------------------------------------------------*/
FoamFile
{
    version     2.0;
    format      ascii;
    arch        "LSB;label=32;scalar=64";
    class       polyBoundaryMesh;
    location    "constant/polyMesh";
    object      boundary;
}
// * * * * * * * * * * * * * * * * * * * * * * * * * * * * * * * * * * * * * //

9
(
    inlet
    {
        type            patch;
        nFaces          0;
        startFace       16434;
    }
    outlet
    {
        type            patch;
        nFaces          0;
        startFace       16434;
    }
    lowerWall
    {
        type            wall;
        inGroups        1(wall);
        nFaces          0;
        startFace       16434;
    }
    upperWall
    {
        type            wall;
        inGroups        1(wall);
        nFaces          149;
        startFace       16434;
    }
    frontAndBack
    {
        type            wall;
        inGroups        1(wall);
        nFaces          16668;
        startFace       16583;
    }
    procBoundary9to0
    {
        type            processor;
        inGroups        1(processor);
        nFaces          36;
        startFace       33251;
        matchTolerance  0.0001;
        transform       unknown;
        myProcNo        9;
        neighbProcNo    0;
    }
    procBoundary9to3
    {
        type            processor;
        inGroups        1(processor);
        nFaces          85;
        startFace       33287;
        matchTolerance  0.0001;
        transform       unknown;
        myProcNo        9;
        neighbProcNo    3;
    }
    procBoundary9to4
    {
        type            processor;
        inGroups        1(processor);
        nFaces          50;
        startFace       33372;
        matchTolerance  0.0001;
        transform       unknown;
        myProcNo        9;
        neighbProcNo    4;
    }
    procBoundary9to6
    {
        type            processor;
        inGroups        1(processor);
        nFaces          148;
        startFace       33422;
        matchTolerance  0.0001;
        transform       unknown;
        myProcNo        9;
        neighbProcNo    6;
    }
)

// ************************************************************************* //
