/*--------------------------------*- C++ -*----------------------------------*\
| =========                 |                                                 |
| \\      /  F ield         | OpenFOAM: The Open Source CFD Toolbox           |
|  \\    /   O peration     | Version:  2512                                  |
|   \\  /    A nd           | Website:  www.openfoam.com                      |
|    \\/     M anipulation  |                                                 |
\*---------------------------------------------------------------------------*/
FoamFile
{
    version     2.0;
    format      ascii;
    arch        "LSB;label=32;scalar=64";
    class       polyBoundaryMesh;
    location    "constant/polyMesh";
    object      boundary;
}
// * * * * * * * * * * * * * * * * * * * * * * * * * * * * * * * * * * * * * //

8
(
    inlet
    {
        type            patch;
        nFaces          49;
        startFace       16431;
    }
    outlet
    {
        type            patch;
        nFaces          0;
        startFace       16480;
    }
    lowerWall
    {
        type            wall;
        inGroups        1(wall);
        nFaces          149;
        startFace       16480;
    }
    upperWall
    {
        type            wall;
        inGroups        1(wall);
        nFaces          0;
        startFace       16629;
    }
    frontAndBack
    {
        type            wall;
        inGroups        1(wall);
        nFaces          16666;
        startFace       16629;
    }
    procBoundary0to3
    {
        type            processor;
        inGroups        1(processor);
        nFaces          150;
        startFace       33295;
        matchTolerance  0.0001;
        transform       unknown;
        myProcNo        0;
        neighbProcNo    3;
    }
    procBoundary0to6
    {
        type            processor;
        inGroups        1(processor);
        nFaces          86;
        startFace       33445;
        matchTolerance  0.0001;
        transform       unknown;
        myProcNo        0;
        neighbProcNo    6;
    }
    procBoundary0to9
    {
        type            processor;
        inGroups        1(processor);
        nFaces          36;
        startFace       33531;
        matchTolerance  0.0001;
        transform       unknown;
        myProcNo        0;
        neighbProcNo    9;
    }
)

// ************************************************************************* //
