/*--------------------------------*- C++ -*----------------------------------*\
| =========                 |                                                 |
| \\      /  F ield         | OpenFOAM: The Open Source CFD Toolbox           |
|  \\    /   O peration     | Version:  2512                                  |
|   \\  /    A nd           | Website:  www.openfoam.com                      |
|    \\/     M anipulation  |                                                 |
\*---------------------------------------------------------------------------*/
FoamFile
{
    version     2.0;
    format      ascii;
    arch        "LSB;label=32;scalar=64";
    class       polyBoundaryMesh;
    location    "constant/polyMesh";
    object      boundary;
}
// * * * * * * * * * * * * * * * * * * * * * * * * * * * * * * * * * * * * * //

7
(
    inlet
    {
        type            patch;
        nFaces          0;
        startFace       16433;
    }
    outlet
    {
        type            patch;
        nFaces          51;
        startFace       16433;
    }
    lowerWall
    {
        type            wall;
        inGroups        1(wall);
        nFaces          184;
        startFace       16484;
    }
    upperWall
    {
        type            wall;
        inGroups        1(wall);
        nFaces          0;
        startFace       16668;
    }
    frontAndBack
    {
        type            wall;
        inGroups        1(wall);
        nFaces          16668;
        startFace       16668;
    }
    procBoundary8to2
    {
        type            processor;
        inGroups        1(processor);
        nFaces          85;
        startFace       33336;
        matchTolerance  0.0001;
        transform       unknown;
        myProcNo        8;
        neighbProcNo    2;
    }
    procBoundary8to11
    {
        type            processor;
        inGroups        1(processor);
        nFaces          150;
        startFace       33421;
        matchTolerance  0.0001;
        transform       unknown;
        myProcNo        8;
        neighbProcNo    11;
    }
)

// ************************************************************************* //
