/*--------------------------------*- C++ -*----------------------------------*\
| =========                 |                                                 |
| \\      /  F ield         | OpenFOAM: The Open Source CFD Toolbox           |
|  \\    /   O peration     | Version:  2512                                  |
|   \\  /    A nd           | Website:  www.openfoam.com                      |
|    \\/     M anipulation  |                                                 |
\*---------------------------------------------------------------------------*/
FoamFile
{
    version     2.0;
    format      ascii;
    arch        "LSB;label=32;scalar=64";
    class       polyBoundaryMesh;
    location    "constant/polyMesh";
    object      boundary;
}
// * * * * * * * * * * * * * * * * * * * * * * * * * * * * * * * * * * * * * //

7
(
    inlet
    {
        type            patch;
        nFaces          51;
        startFace       16431;
    }
    outlet
    {
        type            patch;
        nFaces          0;
        startFace       16482;
    }
    lowerWall
    {
        type            wall;
        inGroups        1(wall);
        nFaces          0;
        startFace       16482;
    }
    upperWall
    {
        type            wall;
        inGroups        1(wall);
        nFaces          184;
        startFace       16482;
    }
    frontAndBack
    {
        type            wall;
        inGroups        1(wall);
        nFaces          16666;
        startFace       16666;
    }
    procBoundary3to0
    {
        type            processor;
        inGroups        1(processor);
        nFaces          150;
        startFace       33332;
        matchTolerance  0.0001;
        transform       unknown;
        myProcNo        3;
        neighbProcNo    0;
    }
    procBoundary3to9
    {
        type            processor;
        inGroups        1(processor);
        nFaces          85;
        startFace       33482;
        matchTolerance  0.0001;
        transform       unknown;
        myProcNo        3;
        neighbProcNo    9;
    }
)

// ************************************************************************* //
