/*--------------------------------*- C++ -*----------------------------------*\
| =========                 |                                                 |
| \\      /  F ield         | OpenFOAM: The Open Source CFD Toolbox           |
|  \\    /   O peration     | Version:  2512                                  |
|   \\  /    A nd           | Website:  www.openfoam.com                      |
|    \\/     M anipulation  |                                                 |
\*---------------------------------------------------------------------------*/
FoamFile
{
    version     2.0;
    format      ascii;
    arch        "LSB;label=32;scalar=64";
    class       polyBoundaryMesh;
    location    "constant/polyMesh";
    object      boundary;
}
// * * * * * * * * * * * * * * * * * * * * * * * * * * * * * * * * * * * * * //

5
(
    inlet
    {
        type            patch;
        nFaces          864;
        startFace       1262136;
    }
    outlet
    {
        type            patch;
        nFaces          864;
        startFace       1263000;
    }
    lowerWall
    {
        type            wall;
        inGroups        1(wall);
        nFaces          9000;
        startFace       1263864;
    }
    upperWall
    {
        type            wall;
        inGroups        1(wall);
        nFaces          9000;
        startFace       1272864;
    }
    frontAndBack
    {
        type            wall;
        inGroups        1(wall);
        nFaces          48000;
        startFace       1281864;
    }
)

// ************************************************************************* //
