/*--------------------------------*- C++ -*----------------------------------*\
| =========                 |                                                 |
| \\      /  F ield         | OpenFOAM: The Open Source CFD Toolbox           |
|  \\    /   O peration     | Version:  2512                                  |
|   \\  /    A nd           | Website:  www.openfoam.com                      |
|    \\/     M anipulation  |                                                 |
\*---------------------------------------------------------------------------*/
FoamFile
{
    version     2.0;
    format      ascii;
    arch        "LSB;label=32;scalar=64";
    class       polyBoundaryMesh;
    location    "constant/polyMesh";
    object      boundary;
}
// * * * * * * * * * * * * * * * * * * * * * * * * * * * * * * * * * * * * * //

9
(
    inlet
    {
        type            patch;
        nFaces          0;
        startFace       16433;
    }
    outlet
    {
        type            patch;
        nFaces          0;
        startFace       16433;
    }
    lowerWall
    {
        type            wall;
        inGroups        1(wall);
        nFaces          0;
        startFace       16433;
    }
    upperWall
    {
        type            wall;
        inGroups        1(wall);
        nFaces          149;
        startFace       16433;
    }
    frontAndBack
    {
        type            wall;
        inGroups        1(wall);
        nFaces          16668;
        startFace       16582;
    }
    procBoundary10to1
    {
        type            processor;
        inGroups        1(processor);
        nFaces          36;
        startFace       33250;
        matchTolerance  0.0001;
        transform       unknown;
        myProcNo        10;
        neighbProcNo    1;
    }
    procBoundary10to4
    {
        type            processor;
        inGroups        1(processor);
        nFaces          85;
        startFace       33286;
        matchTolerance  0.0001;
        transform       unknown;
        myProcNo        10;
        neighbProcNo    4;
    }
    procBoundary10to5
    {
        type            processor;
        inGroups        1(processor);
        nFaces          51;
        startFace       33371;
        matchTolerance  0.0001;
        transform       unknown;
        myProcNo        10;
        neighbProcNo    5;
    }
    procBoundary10to7
    {
        type            processor;
        inGroups        1(processor);
        nFaces          149;
        startFace       33422;
        matchTolerance  0.0001;
        transform       unknown;
        myProcNo        10;
        neighbProcNo    7;
    }
)

// ************************************************************************* //
