/*--------------------------------*- C++ -*----------------------------------*\
| =========                 |                                                 |
| \\      /  F ield         | OpenFOAM: The Open Source CFD Toolbox           |
|  \\    /   O peration     | Version:  2512                                  |
|   \\  /    A nd           | Website:  www.openfoam.com                      |
|    \\/     M anipulation  |                                                 |
\*---------------------------------------------------------------------------*/
FoamFile
{
    version     2.0;
    format      ascii;
    arch        "LSB;label=32;scalar=64";
    class       polyBoundaryMesh;
    location    "constant/polyMesh";
    object      boundary;
}
// * * * * * * * * * * * * * * * * * * * * * * * * * * * * * * * * * * * * * //

7
(
    inlet
    {
        type            patch;
        nFaces          0;
        startFace       208557;
    }
    outlet
    {
        type            patch;
        nFaces          427;
        startFace       208557;
    }
    lowerWall
    {
        type            wall;
        inGroups        1(wall);
        nFaces          0;
        startFace       208984;
    }
    upperWall
    {
        type            wall;
        inGroups        1(wall);
        nFaces          3003;
        startFace       208984;
    }
    frontAndBack
    {
        type            wall;
        inGroups        1(wall);
        nFaces          7979;
        startFace       211987;
    }
    procBoundary5to2
    {
        type            processor;
        inGroups        1(processor);
        nFaces          3018;
        startFace       219966;
        matchTolerance  0.0001;
        transform       unknown;
        myProcNo        5;
        neighbProcNo    2;
    }
    procBoundary5to4
    {
        type            processor;
        inGroups        1(processor);
        nFaces          459;
        startFace       222984;
        matchTolerance  0.0001;
        transform       unknown;
        myProcNo        5;
        neighbProcNo    4;
    }
)

// ************************************************************************* //
