/*--------------------------------*- C++ -*----------------------------------*\
| =========                 |                                                 |
| \\      /  F ield         | OpenFOAM: The Open Source CFD Toolbox           |
|  \\    /   O peration     | Version:  2512                                  |
|   \\  /    A nd           | Website:  www.openfoam.com                      |
|    \\/     M anipulation  |                                                 |
\*---------------------------------------------------------------------------*/
FoamFile
{
    version     2.0;
    format      ascii;
    arch        "LSB;label=32;scalar=64";
    class       polyBoundaryMesh;
    location    "constant/polyMesh";
    object      boundary;
}
// * * * * * * * * * * * * * * * * * * * * * * * * * * * * * * * * * * * * * //

8
(
    inlet
    {
        type            patch;
        nFaces          0;
        startFace       16431;
    }
    outlet
    {
        type            patch;
        nFaces          0;
        startFace       16431;
    }
    lowerWall
    {
        type            wall;
        inGroups        1(wall);
        nFaces          0;
        startFace       16431;
    }
    upperWall
    {
        type            wall;
        inGroups        1(wall);
        nFaces          185;
        startFace       16431;
    }
    frontAndBack
    {
        type            wall;
        inGroups        1(wall);
        nFaces          16666;
        startFace       16616;
    }
    procBoundary5to2
    {
        type            processor;
        inGroups        1(processor);
        nFaces          148;
        startFace       33282;
        matchTolerance  0.0001;
        transform       unknown;
        myProcNo        5;
        neighbProcNo    2;
    }
    procBoundary5to10
    {
        type            processor;
        inGroups        1(processor);
        nFaces          51;
        startFace       33430;
        matchTolerance  0.0001;
        transform       unknown;
        myProcNo        5;
        neighbProcNo    10;
    }
    procBoundary5to11
    {
        type            processor;
        inGroups        1(processor);
        nFaces          86;
        startFace       33481;
        matchTolerance  0.0001;
        transform       unknown;
        myProcNo        5;
        neighbProcNo    11;
    }
)

// ************************************************************************* //
