/*--------------------------------*- C++ -*----------------------------------*\
| =========                 |                                                 |
| \\      /  F ield         | OpenFOAM: The Open Source CFD Toolbox           |
|  \\    /   O peration     | Version:  2512                                  |
|   \\  /    A nd           | Website:  www.openfoam.com                      |
|    \\/     M anipulation  |                                                 |
\*---------------------------------------------------------------------------*/
FoamFile
{
    version     2.0;
    format      ascii;
    arch        "LSB;label=32;scalar=64";
    class       polyBoundaryMesh;
    location    "constant/polyMesh";
    object      boundary;
}
// * * * * * * * * * * * * * * * * * * * * * * * * * * * * * * * * * * * * * //

9
(
    inlet
    {
        type            patch;
        nFaces          0;
        startFace       16431;
    }
    outlet
    {
        type            patch;
        nFaces          0;
        startFace       16431;
    }
    lowerWall
    {
        type            wall;
        inGroups        1(wall);
        nFaces          185;
        startFace       16431;
    }
    upperWall
    {
        type            wall;
        inGroups        1(wall);
        nFaces          0;
        startFace       16616;
    }
    frontAndBack
    {
        type            wall;
        inGroups        1(wall);
        nFaces          16666;
        startFace       16616;
    }
    procBoundary6to0
    {
        type            processor;
        inGroups        1(processor);
        nFaces          86;
        startFace       33282;
        matchTolerance  0.0001;
        transform       unknown;
        myProcNo        6;
        neighbProcNo    0;
    }
    procBoundary6to1
    {
        type            processor;
        inGroups        1(processor);
        nFaces          50;
        startFace       33368;
        matchTolerance  0.0001;
        transform       unknown;
        myProcNo        6;
        neighbProcNo    1;
    }
    procBoundary6to4
    {
        type            processor;
        inGroups        1(processor);
        nFaces          1;
        startFace       33418;
        matchTolerance  0.0001;
        transform       unknown;
        myProcNo        6;
        neighbProcNo    4;
    }
    procBoundary6to9
    {
        type            processor;
        inGroups        1(processor);
        nFaces          148;
        startFace       33419;
        matchTolerance  0.0001;
        transform       unknown;
        myProcNo        6;
        neighbProcNo    9;
    }
)

// ************************************************************************* //
